17
tma+ il.ff
C1         -0.08302       -0.14952       -0.01974
N4          0.05790        0.33596        1.37087
C1          1.45215        0.13604        1.82413
C1         -0.86024       -0.41864        2.25217
C1         -0.27715        1.77609        1.42680
H1         -1.12514       -0.01391       -0.38682
H1          0.59572        0.40372       -0.70704
H1          0.16622       -1.23202       -0.09239
H1          1.58836        0.49584        2.86873
H1          1.73137       -0.94116        1.79509
H1          2.16675        0.69150        1.17608
H1         -1.91918       -0.28176        1.93735
H1         -0.63446       -1.50837        2.22550
H1         -0.77135       -0.07749        3.30807
H1         -0.18240        2.16857        2.46417
H1          0.40111        2.37001        0.77383
H1         -1.32189        1.95688        1.08764
